NeoChargeProject/WH_4_Node_Feeder/Controlled_WH/HP-WH/hpwh_IEEE_4_node.glm
//	Copyright (C) 2008 Battelle Memorial Institute

//Modified by Midrar Adham

/////////////////////////////////////////////
// BEGIN
/////////////////////////////////////////////

clock {
	timestamp '2020-01-01 0:00:00';
    stoptime '2020-01-02 0:10:00';
}
#include "./water_demand_schedule.glm"


module powerflow;
module residential {
    implicit_enduses NONE;
}


module market;
module tape;

object overhead_line_conductor:100 {
	geometric_mean_radius 0.0244;
	resistance 0.306;
}

object overhead_line_conductor:101 {
	geometric_mean_radius 0.00814;
	resistance 0.592;
}

object line_spacing:200 {
	distance_AB 2.5;
	distance_BC 4.5;
	distance_AC 7.0;
	distance_AN 5.656854;
	distance_BN 4.272002;
	distance_CN 5.0;
}

object line_configuration:300 {
	conductor_A overhead_line_conductor:100;
	conductor_B overhead_line_conductor:100;
	conductor_C overhead_line_conductor:100;
	conductor_N overhead_line_conductor:101;
	spacing line_spacing:200;
}

object transformer_configuration:400 {
	connect_type 1;
	power_rating 6000;
	powerA_rating 2000;
	powerB_rating 2000;
	powerC_rating 2000;
	primary_voltage 12470;
	secondary_voltage 4160;
	resistance 0.01;
	reactance 0.06;
}

object node {
	name node1;
	phases "ABCN";
	voltage_A +7199.558+0.000j;
	voltage_B -3599.779-6235.000j;
	voltage_C -3599.779+6235.000j;
	nominal_voltage 7200;
}

object transformer:23 {
	phases "ABCN";
	from node1;
	to node_646;
	configuration transformer_configuration:400;
}
object node {
	name node_646;
	phases "ABCN";
	voltage_A +2401.777+0.000j;
	voltage_B -1200.889-2080.000j;
	voltage_C -1200.889+2080.000j;
	nominal_voltage 2400;
}

object triplex_line_conductor {
    name tp_line_conductor;
    resistance 0.97;
    geometric_mean_radius 0.0111;
};

object triplex_line_configuration {
    name triplex_line_configuration_1;
    conductor_1 tp_line_conductor;
    conductor_2 tp_line_conductor;
    conductor_N tp_line_conductor;
    insulation_thickness 0.08;
    diameter 0.368;
}

object transformer_configuration {
    name CS_config;
    connect_type SINGLE_PHASE_CENTER_TAPPED;
    install_type POLETOP;
    powerC_rating 75;
    primary_voltage 2401;
    secondary_voltage 120.000;
    impedance 0.006+0.0136j;
}




    ///////////////////////////////
    // Triplex Lines, Nodes, and Transformers
    ///////////////////////////////
object transformer {
	name center_tap_1;
	phases CS;
	from node_646;
	to trip_node1;
	configuration CS_config;
}

object triplex_node {
	name trip_node1;
	phases CS;
	nominal_voltage 120;
}

object triplex_line {
	name trip_line1;
	phases CS;
	from trip_node1;
	to trip_meter1;
	length 0;
	configuration triplex_line_configuration_1;
}

object triplex_meter {
    name trip_meter1;
    phases CS;
    nominal_voltage 120;
    object recorder {
        name rec;
        file "house_meter.csv";
        property measured_real_power,measured_voltage_1,measured_current_1;
        interval 600;
    };
}

object house {
    name house1;
    breaker_amps 30;
    parent trip_meter1;
    object waterheater {
        name wh1;
        location INSIDE;
        heat_mode ELECTRIC;
	upper_tank_temperature 117;
        lower_tank_temperature 119;
        tank_setpoint 119;
        heating_element_capacity 4.5 kW;
        thermostat_deadband 2;
        inlet_water_temperature 60;
        tank_UA 3.3;
        waterheater_model MULTILAYER;
        tank_height 3.78;
        water_demand demand;
        tank_volume 50;
        object recorder {
            file "wh_E_1.csv";
            interval 300;
            property nominal_voltage,actual_load,lower_tank_temperature,upper_tank_temperature,water_demand,is_waterheater_on;
//            property heating_element_capacity,water_demand,temperature,is_waterheater_on,tank_setpoint,waterheater_model;
            };
        };
}

object house {
    name house2;
    breaker_amps 30;
    parent trip_meter1;
    object waterheater {
        name wh2;
        location INSIDE;
        lower_tank_temperature 119;
        upper_tank_temperature 117;
        heat_mode HEAT_PUMP;
        heating_element_capacity 0.6 kW;
        thermostat_deadband 2;
        inlet_water_temperature 60;
        tank_setpoint 119;
        tank_UA 3.3;
        tank_height 3.78;
        discrete_step_size 60;
        circular_flow_rate 2;
    	T_mixing_valve 110;
        waterheater_model MULTILAYER;
        upper_heating_element_state ON;
        lower_heating_element_state ON;
	    water_demand demand;
        tank_volume 50;
        object recorder {
            file "wh_hp_1.csv";
            interval 300;
            property nominal_voltage,actual_load,lower_tank_temperature,upper_tank_temperature,water_demand,is_waterheater_on;
//            property height,heating_element_capacity,tank_setpoint,waterheater_model,water_demand,temperature,is_waterheater_on;
        };
    };
}

///////////////////////////////
// END
///////////////////////////////

